72 
CELL   14.78500   14.78600   10.00000   90.00000   90.00000   60.00000
  C      1.183000      0.699000      0.000000
  C      2.415000      1.410000     -0.000000
  C      2.415000      2.833000      0.000000
  C      3.647000      0.699000      0.000000
  C      3.647000      3.544000     -0.000000
  C      3.647000      4.967000      0.000000
  C      4.879000      1.410000     -0.000000
  C      4.879000      2.833000      0.000000
  C      4.879000      5.678000     -0.000000
  C      4.879000      7.101000      0.000000
  C      6.111000      0.699000      0.000000
  C      6.111000      3.544000     -0.000000
  C      6.111000      4.967000      0.000000
  C      6.111000      7.812000     -0.000000
  C      6.111000      9.235000      0.000000
  C      7.343000      1.410000     -0.000000
  C      7.343000      2.833000      0.000000
  C      7.343000      5.678000     -0.000000
  C      7.343000      7.101000      0.000000
  C      7.343000      9.946000     -0.000000
  C      7.343000     11.369000      0.000000
  C      8.575000      0.699000      0.000000
  C      8.575000      3.544000     -0.000000
  C      8.575000      4.967000      0.000000
  C      8.575000      7.812000     -0.000000
  C      8.575000      9.235000      0.000000
  C      8.575000     12.080000     -0.000000
  C      9.807000      1.410000     -0.000000
  C      9.807000      5.678000     -0.000000
  C      9.807000      9.946000     -0.000000
  C      9.808000      2.833000      0.000000
  C      9.808000      7.101000      0.000000
  C      9.808000     11.369000      0.000000
  C     11.040000      0.699000      0.000000
  C     11.040000      3.544000     -0.000000
  C     11.040000      4.967000      0.000000
  C     11.040000      7.812000     -0.000000
  C     11.040000      9.235000      0.000000
  C     11.040000     12.080000     -0.000000
  C     12.272000      1.410000     -0.000000
  C     12.272000      2.833000      0.000000
  C     12.272000      5.678000     -0.000000
  C     12.272000      7.101000      0.000000
  C     12.272000      9.946000     -0.000000
  C     12.272000     11.369000      0.000000
  C     13.504000      0.699000      0.000000
  C     13.504000      3.544000     -0.000000
  C     13.504000      4.967000      0.000000
  C     13.504000      7.812000     -0.000000
  C     13.504000      9.235000      0.000000
  C     13.504000     12.080000     -0.000000
  C     14.736000      1.410000     -0.000000
  C     14.736000      2.833000      0.000000
  C     14.736000      5.678000     -0.000000
  C     14.736000      7.101000      0.000000
  C     14.736000      9.946000     -0.000000
  C     14.736000     11.369000      0.000000
  C     15.968000      3.544000     -0.000000
  C     15.968000      4.967000      0.000000
  C     15.968000      7.812000     -0.000000
  C     15.968000      9.235000      0.000000
  C     15.968000     12.080000     -0.000000
  C     17.200000      5.678000     -0.000000
  C     17.200000      7.101000      0.000000
  C     17.200000      9.946000     -0.000000
  C     17.200000     11.369000      0.000000
  C     18.432000      7.812000     -0.000000
  C     18.432000      9.235000      0.000000
  C     18.432000     12.080000     -0.000000
  C     19.664000      9.946000     -0.000000
  C     19.665000     11.369000      0.000000
  C     20.897000     12.080000     -0.000000
